[TITLE]


[JUNCTIONS]
;ID              	Elev        	Demand      	Pattern         
 Pb_Hoenderloo_Hoenderloo	50.500000   	0.000000    	                	;
 A1130142_1      	19.969999   	0.012329    	Hoenderloo_Otterlo	;
 A1130142_2      	19.969999   	0.000000    	                	;
 A1130147_1      	20.160000   	0.000000    	                	;
 A1130147_2      	20.160000   	0.000000    	                	;
 A1130152_1      	20.190001   	0.000000    	                	;
 A1130152_2      	20.190001   	0.000000    	                	;
 A1130192_1      	22.799999   	0.000000    	                	;
 A1130192_2      	22.799999   	0.000000    	                	;
 A1130207_1      	22.160000   	0.000000    	                	;
 A1130207_2      	22.160000   	0.055479    	Hoenderloo_Otterlo	;
 A1130226_1      	22.485001   	0.000000    	                	;
 A1130226_2      	22.485001   	0.068836    	Hoenderloo_Otterlo	;
 A1130231_1      	18.469999   	0.026370    	Hoenderloo_Otterlo	;
 A1130231_2      	18.469999   	0.666096    	Hoenderloo_Otterlo	;
 A1130301_1      	22.490000   	0.012785    	Hoenderloo_Otterlo	;
 A1130301_2      	22.490000   	0.000000    	                	;
 A1130311_1      	22.490000   	0.000000    	                	;
 A1130311_2      	22.490000   	0.000000    	                	;
 A1130321_1      	16.559999   	0.000000    	                	;
 A1130321_2      	16.559999   	0.000000    	                	;
 A1130331_1      	17.719999   	0.140868    	Hoenderloo_Otterlo	;
 A1130331_2      	17.719999   	0.000000    	                	;
 A1130336_1      	17.719999   	0.000000    	                	;
 A1130336_2      	17.719999   	0.000000    	                	;
 A1130356_1      	22.879999   	0.000000    	                	;
 A1130356_2      	22.879999   	0.040982    	Hoenderloo_Otterlo	;
 A1130376_1      	22.844999   	0.000000    	                	;
 A1130376_2      	22.844999   	0.000000    	                	;
 A1130391_1      	22.584999   	0.000000    	                	;
 A1130391_2      	22.584999   	0.046918    	Hoenderloo_Otterlo	;
 A1130396_1      	22.660000   	0.068950    	Hoenderloo_Otterlo	;
 A1130396_2      	22.660000   	0.000000    	                	;
 A1130413_1      	24.785000   	0.000000    	                	;
 A1130413_2      	24.785000   	0.015068    	Hoenderloo_Otterlo	;
 A1130418_1      	24.785000   	0.000000    	                	;
 A1130418_2      	24.785000   	0.000000    	                	;
 A1130428_1      	23.485001   	0.000000    	                	;
 A1130428_2      	23.485001   	0.000000    	                	;
 A1130433_1      	23.129999   	0.000000    	                	;
 A1130433_2      	23.129999   	0.000000    	                	;
 A1130443_1      	23.080000   	0.000000    	                	;
 A1130443_2      	23.080000   	0.026256    	Hoenderloo_Otterlo	;
 A1130458_1      	0.000000    	0.093265    	Hoenderloo_Otterlo	;
 A1130458_2      	23.025000   	0.000000    	                	;
 A1130463_1      	23.025000   	0.128425    	Hoenderloo_Otterlo	;
 A1130463_2      	23.025000   	0.000000    	                	;
 A1130478_1      	22.865000   	0.000000    	                	;
 A1130478_2      	22.865000   	0.000000    	                	;
 A1130488_1      	0.000000    	0.000000    	                	;
 A1130488_2      	22.990000   	0.000000    	                	;
 A1130493_1      	23.025000   	0.000000    	                	;
 A1130493_2      	23.025000   	0.000000    	                	;
 A1130508_1      	23.125000   	0.000000    	                	;
 A1130508_2      	23.125000   	0.000000    	                	;
 A1130513_1      	23.129999   	0.000000    	                	;
 A1130513_2      	23.129999   	0.000000    	                	;
 A1130523_1      	23.004999   	0.000000    	                	;
 A1130523_2      	23.004999   	0.000000    	                	;
 A1132978_1      	11.150000   	0.000000    	                	;
 A1132978_2      	11.150000   	0.020320    	Hoenderloo_Otterlo	;
 A1132983_2      	12.810000   	0.000000    	                	;
 A1132993_1      	14.640000   	0.018037    	Hoenderloo_Otterlo	;
 A1132993_2      	14.640000   	0.000000    	                	;
 A1133028_1      	22.584999   	0.000000    	                	;
 A1133028_2      	22.584999   	0.000000    	                	;
 A1133043_1      	22.549999   	0.000000    	                	;
 A1133043_2      	22.549999   	0.058105    	Hoenderloo_Otterlo	;
 A1133075_1      	11.890000   	0.000000    	                	;
 A1133075_2      	11.890000   	0.000000    	                	;
 A1133085_1      	14.220000   	0.000000    	                	;
 A1133085_2      	14.220000   	0.508333    	Hoenderloo_Otterlo	;
 A1133105_1      	13.810000   	0.000000    	                	;
 A1133105_2      	13.810000   	0.000000    	                	;
 A1133120_1      	14.310000   	0.107420    	Hoenderloo_Otterlo	;
 A1133120_2      	14.310000   	0.000000    	                	;
 A1133140_1      	15.469999   	0.000000    	                	;
 A1133140_2      	15.469999   	0.000000    	                	;
 A1133145_1      	15.469999   	0.000000    	                	;
 A1133145_2      	15.469999   	0.042123    	Hoenderloo_Otterlo	;
 A1133150_1      	15.670000   	0.000000    	                	;
 A1133150_2      	15.670000   	0.000000    	                	;
 A1133155_1      	15.670000   	0.000000    	                	;
 A1133155_2      	15.670000   	0.000000    	                	;
 A1133160_1      	15.670000   	0.000000    	                	;
 A1133160_2      	15.670000   	0.000000    	                	;
 A1133165_1      	15.670000   	0.000000    	                	;
 A1133165_2      	15.670000   	0.008219    	Hoenderloo_Otterlo	;
 A1133170_1      	16.120001   	0.061644    	Hoenderloo_Otterlo	;
 A1133170_2      	16.120001   	0.000000    	                	;
 A1133175_1      	19.120001   	0.000000    	                	;
 A1133175_2      	19.120001   	0.000000    	                	;
 A1133195_1      	19.969999   	0.000000    	                	;
 A1133195_2      	19.969999   	0.041324    	Hoenderloo_Otterlo	;
 A1133200_1      	19.969999   	0.105251    	Hoenderloo_Otterlo	;
 A1133200_2      	19.969999   	0.000000    	                	;
 A1133215_1      	11.180000   	0.000000    	                	;
 A1133215_2      	11.180000   	0.063128    	Hoenderloo_Otterlo	;
 A1133220_1      	12.360000   	0.000000    	                	;
 A1133220_2      	12.360000   	0.000000    	                	;
 A1133230_1      	11.470000   	0.000000    	                	;
 A1133230_2      	11.470000   	0.026941    	Hoenderloo_Otterlo	;
 A1133240_1      	14.220000   	0.000000    	                	;
 A1133240_2      	14.220000   	0.008562    	Hoenderloo_Otterlo	;
 A1133245_1      	14.690000   	0.000000    	                	;
 A1133245_2      	14.690000   	0.000000    	                	;
 A1133255_1      	16.650000   	0.000000    	                	;
 A1133255_2      	16.650000   	0.034817    	Hoenderloo_Otterlo	;
 A1133267_1      	17.290001   	0.077055    	Hoenderloo_Otterlo	;
 A1133267_2      	17.290001   	0.000000    	                	;
 A1133271_1      	17.510000   	0.000000    	                	;
 A1133271_2      	17.510000   	0.000000    	                	;
 A1133276_1      	17.510000   	0.000000    	                	;
 A1133276_2      	17.510000   	0.000000    	                	;
 A1133281_1      	18.700001   	0.000000    	                	;
 A1133281_2      	18.700001   	0.014612    	Hoenderloo_Otterlo	;
 A1133286_1      	18.889999   	0.000000    	                	;
 A1133286_2      	18.889999   	0.000000    	                	;
 A1133296_1      	18.889999   	0.029224    	Hoenderloo_Otterlo	;
 A1133296_2      	18.889999   	0.000000    	                	;
 A1133301_1      	18.200001   	0.000000    	                	;
 A1133301_2      	18.200001   	0.000000    	                	;
 A1133306_1      	22.469999   	0.000000    	                	;
 A1133306_2      	22.469999   	0.000000    	                	;
 A1133316_1      	13.350000   	0.000000    	                	;
 A1133316_2      	13.350000   	0.000000    	                	;
 A1133321_1      	13.750000   	0.000000    	                	;
 A1133321_2      	13.750000   	0.028082    	Hoenderloo_Otterlo	;
 A1133336_1      	14.430000   	0.000000    	                	;
 A1133336_2      	14.430000   	0.000000    	                	;
 A1133341_1      	14.430000   	0.000000    	                	;
 A1133341_2      	14.430000   	0.000000    	                	;
 A1133353_1      	14.350000   	0.000000    	                	;
 A1133353_2      	14.350000   	0.000000    	                	;
 A1133358_1      	14.350000   	0.055936    	Hoenderloo_Otterlo	;
 A1133358_2      	14.350000   	0.000000    	                	;
 A1133363_1      	14.350000   	0.000000    	                	;
 A1133363_2      	14.350000   	0.086644    	Hoenderloo_Otterlo	;
 A1133373_1      	20.230000   	0.000000    	                	;
 A1133373_2      	20.230000   	0.000000    	                	;
 A1133388_1      	20.790001   	0.031507    	Hoenderloo_Otterlo	;
 A1133388_2      	20.790001   	0.000000    	                	;
 A1133393_1      	17.680000   	0.087215    	Hoenderloo_Otterlo	;
 A1133393_2      	17.680000   	0.000000    	                	;
 A1133403_1      	17.940001   	0.005822    	Hoenderloo_Otterlo	;
 A1133403_2      	17.940001   	0.000000    	                	;
 A1133413_1      	17.680000   	0.074772    	Hoenderloo_Otterlo	;
 A1133413_2      	17.680000   	0.000000    	                	;
 A1133428_1      	18.000000   	0.000000    	                	;
 A1133428_2      	18.000000   	0.033219    	Hoenderloo_Otterlo	;
 A1133438_1      	18.540001   	0.000000    	                	;
 A1133438_2      	18.540001   	0.134361    	Hoenderloo_Otterlo	;
 A1133453_1      	18.540001   	0.000000    	                	;
 A1133453_2      	18.540001   	0.022146    	Hoenderloo_Otterlo	;
 A1133458_1      	18.540001   	0.000000    	                	;
 A1133458_2      	18.540001   	0.012329    	Hoenderloo_Otterlo	;
 A1133463_1      	18.540001   	0.023059    	Hoenderloo_Otterlo	;
 A1133468_1      	18.540001   	0.000000    	                	;
 A1133468_2      	18.540001   	0.000000    	                	;
 A1133473_1      	18.270000   	0.000000    	                	;
 A1133473_2      	18.270000   	0.000000    	                	;
 A1133488_1      	17.809999   	0.000000    	                	;
 A1133488_2      	17.809999   	0.149201    	Hoenderloo_Otterlo	;
 A1133498_1      	17.530001   	0.000000    	                	;
 A1133498_2      	17.530001   	0.000000    	                	;
 A1133503_1      	17.809999   	0.000000    	                	;
 A1133503_2      	17.809999   	0.030023    	Hoenderloo_Otterlo	;
 A1133508_1      	17.670000   	0.000000    	                	;
 A1133508_2      	17.670000   	0.044977    	Hoenderloo_Otterlo	;
 A1133513_1      	17.809999   	0.000000    	                	;
 A1133513_2      	17.809999   	0.005365    	Hoenderloo_Otterlo	;
 A1133528_1      	19.885000   	0.000000    	                	;
 A1133528_2      	19.885000   	0.028995    	Hoenderloo_Otterlo	;
 A1133533_1      	19.705000   	0.003767    	Hoenderloo_Otterlo	;
 A1133533_2      	19.705000   	0.000000    	                	;
 A1133568_1      	13.180000   	0.000000    	                	;
 A1133568_2      	13.180000   	0.060160    	Hoenderloo_Otterlo	;
 A1133573_1      	13.010000   	0.000000    	                	;
 A1133573_2      	13.010000   	0.026941    	Hoenderloo_Otterlo	;
 A1133583_1      	0.000000    	0.000000    	                	;
 A1133583_2      	15.370001   	0.000000    	                	;
 A1133588_2      	15.400000   	0.000000    	                	;
 A1133598_2      	17.020000   	0.029680    	Hoenderloo_Otterlo	;
 A1133613_1      	17.650000   	0.000000    	                	;
 A1133613_2      	17.650000   	0.000000    	                	;
 A1133628_1      	18.440001   	0.000000    	                	;
 A1133628_2      	18.440001   	0.051941    	Hoenderloo_Otterlo	;
 A1133638_1      	18.440001   	0.000000    	                	;
 A1133638_2      	18.440001   	0.014269    	Hoenderloo_Otterlo	;
 A1133653_1      	17.850000   	0.305822    	Hoenderloo_Otterlo	;
 A1133653_2      	17.850000   	0.000000    	                	;
 A1133663_1      	17.700001   	0.000000    	                	;
 A1133663_2      	17.700001   	0.098174    	Hoenderloo_Otterlo	;
 A1133673_1      	18.990000   	0.000000    	                	;
 A1133673_2      	18.990000   	0.030936    	Hoenderloo_Otterlo	;
 A1133683_1      	21.200001   	0.000000    	                	;
 A1133683_2      	21.200001   	0.000000    	                	;
 A1133688_1      	21.250000   	0.000000    	                	;
 A1133688_2      	21.250000   	0.000000    	                	;
 A1133748_1      	19.680000   	0.000000    	                	;
 A1133748_2      	19.680000   	0.000000    	                	;
 A1133763_1      	19.680000   	0.000000    	                	;
 A1133763_2      	19.680000   	0.154909    	Hoenderloo_Otterlo	;
 A1133783_1      	20.290001   	0.000000    	                	;
 A1133783_2      	20.290001   	0.025114    	Hoenderloo_Otterlo	;
 A1133838_1      	39.840000   	0.200228    	Hoenderloo_Otterlo	;
 A1133868_1      	20.445000   	0.110274    	Hoenderloo_Otterlo	;
 A1133868_2      	20.445000   	0.000000    	                	;
 A1133878_1      	0.000000    	0.273402    	Hoenderloo_Otterlo	;
 A1133878_2      	20.990000   	0.000000    	                	;
 A1134043_1      	21.735001   	0.000000    	                	;
 A1134043_2      	21.735001   	0.000000    	                	;
 A1134478_1      	22.260000   	0.000000    	                	;
 A1134478_2      	22.260000   	0.000000    	                	;
 A1134483_1      	22.523331   	0.000000    	                	;
 A1134483_2      	22.523331   	2.751827    	Hoenderloo_Otterlo	;
 A1134488_1      	26.223330   	0.000000    	                	;
 A1134488_2      	26.223330   	0.000000    	                	;
 A1135021_1      	23.285000   	0.000000    	                	;
 A1135021_2      	23.285000   	0.000000    	                	;
 A1135026_1      	23.285000   	0.000000    	                	;
 A1135026_2      	23.285000   	0.000000    	                	;
 A1135036_1      	23.295000   	0.000000    	                	;
 A1135036_2      	23.295000   	0.000000    	                	;
 A1135051_1      	0.000000    	0.000000    	                	;
 A1135051_2      	22.995001   	0.004566    	Hoenderloo_Otterlo	;
 A1135076_1      	23.740000   	0.000000    	                	;
 A1135076_2      	23.740000   	0.000000    	                	;
 A1135081_1      	23.445000   	0.000000    	                	;
 A1135081_2      	23.445000   	0.000000    	                	;
 A1135086_1      	23.740000   	0.000000    	                	;
 A1135086_2      	23.740000   	0.000000    	                	;
 A1135091_1      	22.725000   	0.004909    	Hoenderloo_Otterlo	;
 A1135091_2      	22.725000   	0.000000    	                	;
 A1135096_1      	22.725000   	0.026027    	Hoenderloo_Otterlo	;
 A1135096_2      	22.725000   	0.000000    	                	;
 A1135101_1      	22.725000   	0.000000    	                	;
 A1135101_2      	22.725000   	0.000000    	                	;
 A1135111_1      	36.599998   	0.000000    	                	;
 A1135111_2      	36.599998   	0.028196    	Hoenderloo_Otterlo	;
 A1135172_1      	22.495001   	0.000000    	                	;
 A1135172_2      	22.495001   	0.000000    	                	;
 A1135197_1      	24.110001   	0.000000    	                	;
 A1135197_2      	24.110001   	0.000000    	                	;
 A1135202_1      	24.004999   	0.000000    	                	;
 A1135202_2      	24.004999   	0.000000    	                	;
 A1135207_1      	24.195000   	0.000000    	                	;
 A1135207_2      	24.195000   	0.000000    	                	;
 A1135212_1      	24.290001   	0.000000    	                	;
 A1135212_2      	24.290001   	0.000000    	                	;
 A1135217_1      	35.959999   	0.000000    	                	;
 A1135217_2      	35.959999   	0.000000    	                	;
 A1135365_1      	25.315001   	0.000000    	                	;
 A1135365_2      	25.315001   	0.000000    	                	;
 A1135455_1      	25.680000   	0.000000    	                	;
 A1135455_2      	25.680000   	0.000000    	                	;
 A1135460_1      	40.695000   	0.062100    	Hoenderloo_Otterlo	;
 A1135460_2      	40.695000   	0.000000    	                	;
 A1135475_1      	23.620001   	0.000000    	                	;
 A1135475_2      	23.620001   	0.000000    	                	;
 A1135480_1      	23.580000   	0.000000    	                	;
 A1135480_2      	23.580000   	0.000000    	                	;
 A1135485_1      	24.165001   	0.000000    	                	;
 A1135485_2      	24.165001   	0.000000    	                	;
 A1135490_1      	24.385000   	0.000000    	                	;
 A1135490_2      	24.385000   	0.000000    	                	;
 A1135495_1      	24.385000   	0.000000    	                	;
 A1135495_2      	24.385000   	0.000000    	                	;
 A1135500_1      	24.385000   	0.000000    	                	;
 A1135500_2      	24.385000   	0.000000    	                	;
 A1135555_1      	23.379999   	0.099201    	Hoenderloo_Otterlo	;
 A1135555_2      	23.379999   	0.000000    	                	;
 A1135600_1      	26.230000   	0.000000    	                	;
 A1135600_2      	26.230000   	0.000000    	                	;
 A1135610_1      	29.440001   	0.000000    	                	;
 A1135610_2      	29.440001   	0.066324    	Hoenderloo_Otterlo	;
 A1135625_1      	26.250000   	0.000000    	                	;
 A1135625_2      	26.250000   	0.072374    	Hoenderloo_Otterlo	;
 A1135700_1      	30.155001   	0.000000    	                	;
 A1135700_2      	30.155001   	0.000000    	                	;
 A1135705_1      	0.000000    	0.022032    	Hoenderloo_Otterlo	;
 A1135705_2      	30.115000   	0.000000    	                	;
 A1135710_1      	30.190001   	0.050685    	Hoenderloo_Otterlo	;
 A1135710_2      	30.190001   	0.000000    	                	;
 A1135730_1      	22.520000   	0.000000    	                	;
 A1135730_2      	22.520000   	0.436530    	Hoenderloo_Otterlo	;
 A1135740_1      	27.834999   	0.022831    	Hoenderloo_Otterlo	;
 A1135740_2      	27.834999   	0.000000    	                	;
 A1135755_1      	29.000000   	0.000000    	                	;
 A1135755_2      	29.000000   	0.012671    	Hoenderloo_Otterlo	;
 A1135760_1      	28.665001   	0.000000    	                	;
 A1135760_2      	28.665001   	0.039269    	Hoenderloo_Otterlo	;
 A1135780_1      	27.695000   	0.065183    	Hoenderloo_Otterlo	;
 A1135780_2      	27.695000   	0.000000    	                	;
 A1135790_1      	30.445000   	0.056393    	Hoenderloo_Otterlo	;
 A1135795_1      	31.615002   	0.300228    	Hoenderloo_Otterlo	;
 A1135800_1      	30.125000   	0.000000    	                	;
 A1135800_2      	30.125000   	0.068607    	Hoenderloo_Otterlo	;
 A1135810_1      	28.575001   	0.063470    	Hoenderloo_Otterlo	;
 A1135810_2      	28.575001   	0.000000    	                	;
 A1135835_1      	26.985001   	0.000000    	                	;
 A1135835_2      	26.985001   	0.000000    	                	;
 A1135840_1      	28.330000   	0.000000    	                	;
 A1135840_2      	28.330000   	0.024201    	Hoenderloo_Otterlo	;
 A1135845_1      	28.330000   	0.071347    	Hoenderloo_Otterlo	;
 A1135845_2      	28.330000   	0.000000    	                	;
 A1135850_1      	27.370001   	0.000000    	                	;
 A1135850_2      	27.370001   	0.000000    	                	;
 A1135855_1      	29.360001   	0.140982    	Hoenderloo_Otterlo	;
 A1135855_2      	29.360001   	0.000000    	                	;
 A1135865_1      	37.869999   	0.000000    	                	;
 A1135865_2      	37.869999   	0.000000    	                	;
 A1135870_1      	37.869999   	0.000000    	                	;
 A1135870_2      	37.869999   	0.000000    	                	;
 A1135885_1      	36.630001   	0.000000    	                	;
 A1135885_2      	36.630001   	0.000000    	                	;
 A1135890_1      	36.630001   	0.000000    	                	;
 A1135890_2      	36.630001   	0.370091    	Hoenderloo_Otterlo	;
 A1135902_1      	25.455000   	0.000000    	                	;
 A1135902_2      	25.455000   	0.000000    	                	;
 A1135912_1      	25.455000   	0.000000    	                	;
 A1135912_2      	25.455000   	0.000000    	                	;
 A1135922_1      	25.195000   	0.000000    	                	;
 A1135922_2      	25.195000   	0.021119    	Hoenderloo_Otterlo	;
 A1135957_1      	29.035000   	0.000000    	                	;
 A1135957_2      	29.035000   	0.000000    	                	;
 A1135987_1      	39.264999   	0.000000    	                	;
 A1135987_2      	39.264999   	0.000000    	                	;
 A1137984_1      	40.806671   	0.000000    	                	;
 A1137984_2      	40.806671   	0.000000    	                	;
 A1138298_1      	28.764999   	0.000000    	                	;
 A1138298_2      	28.764999   	0.000000    	                	;
 A1138358_1      	28.040001   	0.000000    	                	;
 A1138358_2      	28.040001   	0.000000    	                	;
 A1138363_1      	29.495001   	0.000000    	                	;
 A1138363_2      	29.495001   	0.000000    	                	;
 A1139048_1      	23.413330   	0.018379    	Hoenderloo_Otterlo	;
 A1139048_2      	23.413330   	0.000000    	                	;
 A1142668_1      	24.680000   	0.000000    	                	;
 A1142668_2      	24.680000   	0.000000    	                	;
 A1142673_1      	24.793329   	0.000000    	                	;
 A1142673_2      	24.793329   	0.000000    	                	;
 A125175728_1    	19.680000   	0.000000    	                	;
 A125175728_2    	19.680000   	0.025228    	Hoenderloo_Otterlo	;
 A157037719_1    	11.970000   	0.026598    	Hoenderloo_Otterlo	;
 A157037719_2    	11.970000   	0.000000    	                	;
 A160344395_1    	17.959999   	0.051142    	Hoenderloo_Otterlo	;
 A160344395_2    	17.959999   	0.000000    	                	;
 A160344430_1    	17.809999   	0.000000    	                	;
 A160344430_2    	17.809999   	0.000000    	                	;
 A165057386_1    	22.100000   	0.000000    	                	;
 A171712031_1    	17.840000   	0.000000    	                	;
 A171712031_2    	17.840000   	0.000000    	                	;
 A17956752_1     	25.715000   	0.035046    	Hoenderloo_Otterlo	;
 A17956752_2     	25.715000   	0.000000    	                	;
 A180859201_1    	17.940001   	0.000000    	                	;
 A180859201_2    	17.940001   	0.000000    	                	;
 A180859232_1    	17.719999   	0.016210    	Hoenderloo_Otterlo	;
 A180859232_2    	17.719999   	0.000000    	                	;
 A184691414_1    	53.915001   	0.000000    	                	;
 A184691414_2    	53.915001   	0.000000    	                	;
 A188160517_1    	23.135000   	0.000000    	                	;
 A188160517_2    	23.135000   	0.000000    	                	;
 A188224220_1    	19.100000   	0.000000    	                	;
 A188224220_2    	19.100000   	0.000000    	                	;
 A188224409_1    	18.620001   	0.000000    	                	;
 A188224409_2    	18.620001   	0.000000    	                	;
 A194982024_1    	25.334999   	0.000000    	                	;
 A194982024_2    	25.334999   	0.000000    	                	;
 A199444384_1    	23.240000   	0.000000    	                	;
 A199444384_2    	23.240000   	0.000000    	                	;
 A199531373_1    	15.469999   	0.006164    	Hoenderloo_Otterlo	;
 A199531373_2    	15.469999   	0.000000    	                	;
 A200595293_1    	17.440001   	0.005365    	Hoenderloo_Otterlo	;
 A200595293_2    	17.440001   	0.000000    	                	;
 A200771014_1    	17.770000   	0.000000    	                	;
 A200771014_2    	17.770000   	0.000000    	                	;
 A32755685_1     	36.049999   	0.000000    	                	;
 A32755685_2     	36.049999   	0.000000    	                	;
 A37859986_2     	15.100000   	0.011986    	Hoenderloo_Otterlo	;
 LN170224218_459619177	10.190000   	0.000000    	                	;
 LN170345584_459380490	10.460000   	0.050000    	Hoenderloo_Otterlo	;
 LN170346579_459379634	10.460000   	0.115297    	Hoenderloo_Otterlo	;
 LN170352952_459374205	10.460000   	0.077283    	Hoenderloo_Otterlo	;
 LN170781400_459034094	10.850000   	0.001484    	Hoenderloo_Otterlo	;
 LN171096337_458917666	11.180000   	0.002968    	Hoenderloo_Otterlo	;
 LN171103952_458914503	11.180000   	0.000000    	                	;
 LN171252077_459905474	12.510000   	0.000000    	                	;
 LN171342674_458726609	11.530000   	0.000000    	                	;
 LN171445565_459392442	11.400000   	0.000000    	                	;
 LN171565341_459008031	11.670000   	0.000000    	                	;
 LN171587583_458942847	11.670000   	0.019064    	Hoenderloo_Otterlo	;
 LN171648350_458770605	11.970000   	0.000000    	                	;
 LN171704407_459266841	11.760000   	0.230822    	Hoenderloo_Otterlo	;
 LN171852101_459307034	11.890000   	0.000000    	                	;
 LN171968540_459487653	11.820000   	0.000000    	                	;
 LN172052677_457345362	17.200001   	0.000000    	                	;
 LN172100343_457360278	19.680000   	0.000000    	                	;
 LN172259025_457720239	14.880000   	0.182534    	Hoenderloo_Otterlo	;
 LN172281577_457912554	14.430000   	0.184589    	Hoenderloo_Otterlo	;
 LN172306271_458054430	14.350000   	0.000000    	                	;
 LN172375961_459180645	12.630000   	0.027854    	Hoenderloo_Otterlo	;
 LN172416925_458482497	13.750000   	0.075342    	Hoenderloo_Otterlo	;
 LN172422707_460119146	12.670000   	0.014612    	Hoenderloo_Otterlo	;
 LN172424182_458500175	13.750000   	0.027854    	Hoenderloo_Otterlo	;
 LN172433610_457992820	14.710000   	0.000000    	                	;
 LN172504913_458870481	13.220000   	0.000000    	                	;
 LN172531697_459194498	12.840000   	0.000000    	                	;
 LN172581754_459568219	12.520000   	0.102397    	Hoenderloo_Otterlo	;
 LN172649019_459846185	12.770000   	0.000000    	                	;
 LN172662162_460108910	12.840000   	0.118037    	Hoenderloo_Otterlo	;
 LN172679168_459927910	12.810000   	0.000000    	                	;
 LN172681454_459939631	12.810000   	0.024886    	Hoenderloo_Otterlo	;
 LN172683457_459949150	12.810000   	0.000000    	                	;
 LN172684612_459954707	12.810000   	0.000000    	                	;
 LN172746606_458689170	13.800000   	0.000000    	                	;
 LN172759897_457545042	17.020000   	0.000000    	                	;
 LN172846908_458349677	14.430000   	0.111187    	Hoenderloo_Otterlo	;
 LN172882778_459467018	13.010000   	0.026256    	Hoenderloo_Otterlo	;
 LN172885420_460307367	13.130000   	0.091667    	Hoenderloo_Otterlo	;
 LN172977527_459918176	13.260000   	0.052283    	Hoenderloo_Otterlo	;
 LN172979878_459915895	13.260000   	0.542009    	Hoenderloo_Otterlo	;
 LN173010580_458657177	14.230000   	0.088356    	Hoenderloo_Otterlo	;
 LN173093188_458429973	14.640000   	0.124429    	Hoenderloo_Otterlo	;
 LN173294567_459331648	13.730000   	0.197146    	Hoenderloo_Otterlo	;
 LN173374653_457959132	16.870001   	0.139041    	Hoenderloo_Otterlo	;
 LN173499465_457997899	16.540001   	0.000000    	                	;
 LN173692270_458821317	14.670000   	0.098288    	Hoenderloo_Otterlo	;
 LN173805289_458393357	15.719999   	0.000000    	                	;
 LN173811961_459435421	14.220000   	0.032306    	Hoenderloo_Otterlo	;
 LN174188224_458995935	14.690000   	0.000000    	                	;
 LN174456426_457618934	20.389999   	0.005936    	Hoenderloo_Otterlo	;
 LN174555847_459032945	14.650000   	0.036530    	Hoenderloo_Otterlo	;
 LN174723138_460153453	14.340000   	0.289269    	Hoenderloo_Otterlo	;
 LN174763389_458333740	16.540001   	0.000000    	                	;
 LN174829700_458928829	15.180000   	0.000000    	                	;
 LN174836058_459711841	14.140000   	0.099543    	Hoenderloo_Otterlo	;
 LN174874566_458234237	17.450001   	0.000000    	                	;
 LN174876051_458234446	17.450001   	0.000000    	                	;
 LN174986880_458944339	15.309999   	0.065411    	Hoenderloo_Otterlo	;
 LN175110645_458859333	15.770000   	0.000000    	                	;
 LN175319625_459522915	14.640000   	0.132306    	Hoenderloo_Otterlo	;
 LN175353426_459724323	14.640000   	0.050685    	Hoenderloo_Otterlo	;
 LN175359139_458692261	16.190001   	0.000000    	                	;
 LN175414496_459027838	15.469999   	0.000000    	                	;
 LN175415261_459031418	15.469999   	0.000000    	                	;
 LN175448336_459892540	14.770000   	0.017237    	Hoenderloo_Otterlo	;
 LN175484830_459059760	15.469999   	0.007192    	Hoenderloo_Otterlo	;
 LN175503245_458169057	20.230000   	0.000000    	                	;
 LN175541128_458516464	16.270000   	0.032648    	Hoenderloo_Otterlo	;
 LN175542671_458513025	16.270000   	0.013128    	Hoenderloo_Otterlo	;
 LN175722210_458621457	16.000000   	0.000000    	                	;
 LN175724903_458626435	16.000000   	0.040639    	Hoenderloo_Otterlo	;
 LN175750879_458333653	18.700001   	0.000000    	                	;
 LN175753826_452130573	35.970001   	0.000000    	                	;
 LN175755154_452131017	35.970001   	0.000000    	                	;
 LN175780232_459108482	15.450001   	0.000000    	                	;
 LN175822672_458654473	15.950001   	0.014155    	Hoenderloo_Otterlo	;
 LN175918082_452246318	34.195000   	0.000000    	                	;
 LN176009710_452835815	30.500000   	0.000000    	                	;
 LN176010858_452830066	30.434999   	0.000000    	                	;
 LN176011482_452829326	30.434999   	0.000000    	                	;
 LN176012127_452828561	30.434999   	0.000000    	                	;